output/compact_ny_2025/partial_spc/nominal/S3_2025_SHOULDER_LIGHT_LOAD_EXACT/replay_audit_branch.csv
branch_row,device_key,from_bus,to_bus,online,rate_a_mva,from_mva,to_mva,from_overload_mva,to_overload_mva,angle_deg,angle_min_deg,angle_max_deg,angle_below_min_deg,angle_above_max_deg,violated,invalid_limit_bounds,stored_terminal_flow_error_mva,stored_terminal_flow_inconsistent
1,NPCC_S7:BRANCH_ROW:33,37,38,1,2500,17.4580567185838,22.4732366836697,0,0,-0.138123676955563,-360,360,0,0,0,0,9.45649365335027e-14,0
2,NPCC_S7:BRANCH_ROW:34,37,39,1,3388,1116.38464147731,1107.35787354304,0,0,4.5969339705781,-360,360,0,0,0,0,2.30132496038517e-13,0
3,NPCC_S7:BRANCH_ROW:35,37,40,1,2500,178.45389304271,178.03853759014,0,0,-3.09461204068148,-360,360,0,0,0,0,0,0
4,NPCC_S7:BRANCH_ROW:36,37,43,0,3745.98196383403,0,0,0,0,-6.26795541192639,-360,360,0,0,0,0,0,0
5,NPCC_S7:BRANCH_ROW:37,38,69,1,1216,318.000590255659,325.732219702995,0,0,-8.72090855171685,-360,360,0,0,0,0,5.6843418860808e-14,0
6,NPCC_S7:BRANCH_ROW:38,39,73,1,2500,669.675408857899,664.321660175914,0,0,6.93316980999201,-360,360,0,0,0,0,2.8421709430404e-14,0
7,NPCC_S7:BRANCH_ROW:39,39,73,1,2500,669.675408857899,664.321660175914,0,0,6.93316980999201,-360,360,0,0,0,0,2.8421709430404e-14,0
8,NPCC_S7:BRANCH_ROW:40,40,44,0,1328.76341358641,0,0,0,0,-2.53314138617228,-360,360,0,0,0,0,0,0
9,NPCC_S7:BRANCH_ROW:41,41,42,1,2500,224.41894400912,225.844076958258,0,0,-1.17636168899276,-360,360,0,0,0,0,2.92964275105423e-14,0
10,NPCC_S7:BRANCH_ROW:42,41,45,1,314.254622579561,13.3358181828086,9.07313519173094,0,0,-0.925540587073569,-360,360,0,0,0,0,4.44089209850063e-16,0
11,NPCC_S7:BRANCH_ROW:43,43,44,1,2500,106.385955453232,106.254131440182,0,0,0.640201985072633,-360,360,0,0,0,0,1.43214466921978e-14,0
12,NPCC_S7:BRANCH_ROW:44,43,50,1,3463.47124449306,389.316157602811,393.187953695478,0,0,-5.8304289154723,-360,360,0,0,0,0,5.6843418860808e-14,0
13,NPCC_S7:BRANCH_ROW:45,43,50,1,3463.47124449306,389.316157602811,393.187953695478,0,0,-5.8304289154723,-360,360,0,0,0,0,5.6843418860808e-14,0
14,NPCC_S7:BRANCH_ROW:46,44,45,1,2500,50.0817932826618,49.7790431127322,0,0,0.449209748595753,-360,360,0,0,0,0,7.94410929039127e-15,0
15,NPCC_S7:BRANCH_ROW:47,44,48,0,6896.14528055676,0,0,0,0,-0.43263730817968,-360,360,0,0,0,0,0,0
16,NPCC_S7:BRANCH_ROW:48,45,46,1,2040.85471944324,9.81079660554745,14.5029350894486,0,0,-1.97583051863769,-360,360,0,0,0,0,0,0
17,NPCC_S7:BRANCH_ROW:49,45,51,1,489.56239109923,62.0352098747226,64.4557315454385,0,0,-7.10074806732619,-360,360,0,0,0,0,7.94410929039127e-15,0
18,NPCC_S7:BRANCH_ROW:50,45,71,1,166.495119914644,22.3753074934209,26.7193040244219,0,0,-8.0116173245214,-360,360,0,0,0,0,1.77635683940025e-15,0
19,NPCC_S7:BRANCH_ROW:51,46,47,1,2500,38.9504883550632,41.7473958520157,0,0,-3.04235610245797,-360,360,0,0,0,0,3.5527136788005e-15,0
20,NPCC_S7:BRANCH_ROW:52,46,49,1,2500,15.9128225274461,15.052266594938,0,0,5.15795715675037,-360,360,0,0,0,0,1.80731214395321e-15,0
21,NPCC_S7:BRANCH_ROW:53,47,48,1,2500,218.499159647887,217.028757141328,0,0,4.13633956432023,-360,360,0,0,0,0,2.8421709430404e-14,0
22,NPCC_S7:BRANCH_ROW:54,50,51,1,2500,41.2541799191035,40.9313709352903,0,0,-0.180907418185503,-360,360,0,0,0,0,0,0
23,NPCC_S7:BRANCH_ROW:55,50,52,1,2858.06690137886,236.597854835572,242.645883383427,0,0,-2.89371786059595,-360,360,0,0,0,0,3.17764371615651e-14,0
24,NPCC_S7:BRANCH_ROW:56,51,53,1,290.964700741948,22.0083524698139,28.330109699716,0,0,-3.06870675204399,-360,360,0,0,0,0,3.5527136788005e-15,0
25,NPCC_S7:BRANCH_ROW:57,51,72,1,2500,74.9056368448983,77.7851694631385,0,0,-1.01387574784067,-360,360,0,0,0,0,1.4238583238574e-14,0
26,NPCC_S7:BRANCH_ROW:58,52,53,1,2500,24.6115918614439,24.4377601769913,0,0,-0.355896309633543,-360,360,0,0,0,0,3.5527136788005e-15,0
27,NPCC_S7:BRANCH_ROW:59,53,55,1,997.983883346124,25.5809807463628,32.5417930922831,0,0,-1.60605521378503,-360,360,0,0,0,0,8.67509829097541e-14,0
28,NPCC_S7:BRANCH_ROW:60,53,65,1,785.968397879188,25.1995985917444,24.1764067344004,0,0,1.19989850669188,-360,360,0,0,0,0,3.66205343881779e-15,0
29,NPCC_S7:BRANCH_ROW:61,54,56,1,789.941803,40.0425373469782,41.5387525815764,0,0,-0.225803409082642,-360,360,0,0,0,0,7.94410929039127e-15,0
30,NPCC_S7:BRANCH_ROW:62,54,62,1,789.941803,32.1945626857553,29.2422105776935,0,0,1.18021000825566,-360,360,0,0,0,0,8.74754295825051e-14,0
31,NPCC_S7:BRANCH_ROW:65,55,57,1,789.941803,21.7706970314199,21.6598090206697,0,0,0.499575309315425,-360,360,0,0,0,0,1.77805605569387e-13,0
32,NPCC_S7:BRANCH_ROW:66,55,59,1,789.941803,11.7106819513625,11.7459655791214,0,0,0.538968547585259,-360,360,0,0,0,0,8.89711979083502e-14,0
33,NPCC_S7:BRANCH_ROW:67,56,58,1,2500,131.434183569562,131.437951447656,0,0,1.1123033852165,-360,360,0,0,0,0,2.8477166477148e-14,0
34,NPCC_S7:BRANCH_ROW:68,57,59,1,2500,1.34991859545278,2.6417389537985,0,0,0.0393932382698345,-360,360,0,0,0,0,2.22044604925031e-16,0
35,NPCC_S7:BRANCH_ROW:69,58,60,1,2500,29.6730707488192,32.4456439159915,0,0,-0.552550857827663,-360,360,0,0,0,0,1.7767120752481e-13,0
36,NPCC_S7:BRANCH_ROW:70,58,62,1,2500,32.8289722325468,31.2518336688259,0,0,0.293710032121803,-360,360,0,0,0,0,3.58824081558851e-13,0
37,NPCC_S7:BRANCH_ROW:71,59,61,1,2500,12.570227456883,14.4549536243027,0,0,-1.18888437554218,-360,360,0,0,0,0,8.88178419700125e-16,0
38,NPCC_S7:BRANCH_ROW:73,62,63,1,620,58.5031100447591,55.7328933468922,0,0,2.61442308151908,-360,360,0,0,0,0,7.94410929039127e-14,0
39,NPCC_S7:BRANCH_ROW:74,63,64,1,2500,22.6270617132602,22.5254241060956,0,0,0.530379890100164,-360,360,0,0,0,0,8.96840330807744e-14,0
40,NPCC_S7:BRANCH_ROW:75,63,67,1,2500,38.0834953940505,35.2088598460483,0,0,1.88756410821465,-360,360,0,0,0,0,5.05247849010285e-14,0
41,NPCC_S7:BRANCH_ROW:76,64,65,1,2500,10.9191287107088,14.8155739435123,0,0,-0.558006226597753,-360,360,0,0,0,0,0,0
42,NPCC_S7:BRANCH_ROW:77,64,68,1,2500,4.27930294232356,10.6975794046203,0,0,-0.647990681282163,-360,360,0,0,0,0,6.2803698347351e-16,0
43,NPCC_S7:BRANCH_ROW:78,66,67,1,2500,123.088084585698,122.441820667583,0,0,-1.5621921132805,-360,360,0,0,0,0,1.13908665908592e-13,0
44,NPCC_S7:BRANCH_ROW:79,66,69,1,2500,120.509900388903,117.65095124129,0,0,1.81168520427115,-360,360,0,0,0,0,1.42731681407222e-14,0
45,NPCC_S7:BRANCH_ROW:81,67,68,1,2500,75.7105758043845,74.8729033271784,0,0,-2.00517489939665,-360,360,0,0,0,0,5.69543329542959e-14,0
46,NPCC_S7:BRANCH_ROW:82,67,70,1,2500,14.8101215937864,19.1213243801465,0,0,-0.542847139695526,-360,360,0,0,0,0,4.49737630289781e-14,0
47,NPCC_S7:BRANCH_ROW:84,68,71,1,2500,10.2485108488788,6.18552862258633,0,0,1.04792344284131,-360,360,0,0,0,0,1.77635683940025e-15,0
48,NPCC_S7:BRANCH_ROW:85,69,71,1,2500,210.039344348399,206.869572719756,0,0,-4.33112877410699,-360,360,0,0,0,0,2.92964275105423e-14,0
49,NPCC_S7:BRANCH_ROW:86,70,71,1,2500,19.1213243801463,19.0098699950716,0,0,-0.41440431685981,-360,360,0,0,0,0,2.51214793389404e-15,0
50,NPCC_S7:BRANCH_ROW:87,71,72,1,2500,17.0904160047349,14.8193399402697,0,0,-0.103006490645466,-360,360,0,0,0,0,2.51214793389404e-15,0
51,NPCC_S7:BRANCH_ROW:88,73,74,0,1599.84337349398,0,0,0,0,5.17944798865604,-360,360,0,0,0,0,0,0
52,NPCC_S7:BRANCH_ROW:89,73,74,0,1599.84337349398,0,0,0,0,5.17944798865604,-360,360,0,0,0,0,0,0
53,NPCC_S7:BRANCH_ROW:90,74,77,1,2500,100.482024506642,98.3999489459005,0,0,0.238343058713987,-360,360,0,0,0,0,1.77635683940025e-14,0
54,NPCC_S7:BRANCH_ROW:91,74,78,1,2889.50495049505,593.795309218018,591.252505490874,0,0,1.52478365837723,-360,360,0,0,0,0,1.13908665908592e-13,0
55,NPCC_S7:BRANCH_ROW:92,74,78,1,2889.50495049505,593.795309218018,591.252505490874,0,0,1.52478365837723,-360,360,0,0,0,0,1.13908665908592e-13,0
56,NPCC_S7:BRANCH_ROW:94,76,77,0,4611.31325301205,0,0,0,0,0.0400424458754749,-360,360,0,0,0,0,0,0
57,NPCC_S7:BRANCH_ROW:95,78,79,0,908.848753535103,0,0,0,0,2.07203404917434,-360,360,0,0,0,0,0,0
58,NPCC_S7:BRANCH_ROW:96,78,80,1,984.654731457801,34.5189509129513,27.2974645282169,0,0,0.630547112615865,-360,360,0,0,0,0,7.105427357601e-15,0
59,NPCC_S7:BRANCH_ROW:97,78,81,0,503.818330764024,0,0,0,0,0.259098407383028,-360,360,0,0,0,0,0,0
60,NPCC_S7:BRANCH_ROW:98,78,82,1,451.473569126203,152.821521882112,152.377815863486,0,0,2.68413189163732,-360,360,0,0,0,0,2.85083136576674e-14,0
61,NPCC_S7:BRANCH_ROW:219,40,41,1,2500,143.527273707916,142.011496197965,0,0,-1.15839105050296,-360,360,0,0,0,0,0,0
62,NPCC_S7:BRANCH_ROW:220,49,48,0,2500,0,0,0,0,-4.06397369488811,-360,360,0,0,0,0,0,0
63,NPCC_S7:BRANCH_ROW:222,54,52,1,4583.01611665388,221.459009489523,222.779079615495,0,0,2.92300455621881,-360,360,0,0,0,0,5.85928550210846e-14,0
64,NPCC_S7:BRANCH_ROW:223,54,55,1,2500,129.90074086251,129.769274855389,0,0,0.961053032800239,-360,360,0,0,0,0,5.5297220914054e-13,0
65,NPCC_S7:BRANCH_ROW:224,56,57,1,2500,21.2940717803137,21.1755638552745,0,0,1.68643175119831,-360,360,0,0,0,0,0,0
66,NPCC_S7:BRANCH_ROW:225,58,59,1,2500,119.847791433394,119.49647107534,0,0,0.613521604251645,-360,360,0,0,0,0,1.58882185807825e-14,0
67,NPCC_S7:BRANCH_ROW:226,60,61,1,2500,0.712766532540817,0.71261118013395,0,0,-0.0228119134628706,-360,360,0,0,0,0,4.46289287537006e-14,0
68,NPCC_S7:BRANCH_ROW:227,75,76,1,2500,1.88155567183012,1.88155919370079,0,0,-0.00789588937214702,-360,360,0,0,0,0,2.27295118201398e-16,0
69,NPCC_S7:BRANCH_ROW:234,38,39,1,1216,426.484355025429,424.521155318693,0,0,4.73505764753366,-360,360,0,0,0,0,1.13687705080045e-13,0
70,NPCC_S7:BRANCH_ROW:235,73,9002,0,2432,0,0,0,0,2.71614718916373,-360,360,0,0,0,0,0,0
71,NPCC_S7:BRANCH_ROW:236,9002,74,0,2432,0,0,0,0,2.4633007994923,-360,360,0,0,0,0,0,0
72,NPCC_S7:BRANCH_ROW:237,74,78,1,866.851485148515,178.676172549249,178.380514826297,0,0,1.52478365837723,-360,360,0,0,0,0,6.66133814775094e-15,0
73,NPCC_S7:BRANCH_ROW:238,77,78,1,650.138613861386,113.691154912108,113.406164485849,0,0,1.28644059966324,-360,360,0,0,0,0,1.44584971516257e-14,0
74,NPCC_S7:BRANCH_ROW:239,78,81,0,1158.78216075726,0,0,0,0,0.259098407383028,-360,360,0,0,0,0,0,0
75,NPCC_S7:BRANCH_ROW:240,78,79,0,1390.53859290871,0,0,0,0,2.07203404917434,-360,360,0,0,0,0,0,0
76,NPCC_S7:BRANCH_ROW:241,78,82,1,1390.53859290871,469.907231897886,468.54289090441,0,0,2.68413189163732,-360,360,0,0,0,0,5.68711676634668e-14,0
77,NPCC_S7:BRANCH_ROW:242,78,9003,1,2865.3452685422,3.52428620242822,3.52573927519122,0,0,-0.0326150329887049,-360,360,0,0,0,0,4.96506830649455e-16,0
78,NPCC_S7:BRANCH_ROW:243,9003,80,1,5000,58.0812808039761,58.0668096606828,0,0,0.66316214560457,-360,360,0,0,0,0,1.43214466921978e-14,0
79,NPCC_S7:BRANCH_ROW:244,81,80,1,2950,22.5584744759988,22.6022647471646,0,0,0.371448705232837,-360,360,0,0,0,0,3.66205343881779e-15,0
80,NPCC_S7:BRANCH_ROW:245,39,9001,1,5000,218.427989433749,218.155813418536,0,0,4.30364062445474,-360,360,0,0,0,0,2.86162003666802e-14,0
81,NPCC_S7:BRANCH_ROW:246,9001,73,0,5000,0,0,0,0,2.62952918553727,-360,360,0,0,0,0,0,0
82,PERFORM2019:AC:651:858:1,73,858,1,1216,386.063167610412,385.122820894148,0,0,1.15602487504842,-360,360,0,0,0,0,5.86886363686548e-12,0
83,PERFORM2019:AC:651:858:2,73,858,1,1216,386.063207455958,385.122788776067,0,0,1.15602487504842,-360,360,0,0,0,0,5.9008007468492e-12,0
84,PERFORM2019:AC:651:902:1,73,9002,1,1216,386.814463139063,384.778062783411,0,0,2.71614718916373,-360,360,0,0,0,0,4.22519086308697e-13,0
85,PERFORM2019:AC:651:902:2,73,9002,1,1216,386.814502589137,384.778041509746,0,0,2.71614718916373,-360,360,0,0,0,0,3.64252787732548e-13,0
86,PERFORM2019:AC:858:902:1,858,9002,1,1216,385.122836953434,384.002147366827,0,0,1.56012231411531,-360,360,0,0,0,0,2.94370789359259e-12,0
87,PERFORM2019:AC:858:902:2,858,9002,1,1216,385.122772717273,384.002190345675,0,0,1.56012231411531,-360,360,0,0,0,0,5.74559043089411e-12,0
88,PERFORM2019:AC:897:902:1,9002,74,1,1216,768.780449296105,767.610395589933,0,0,2.4633007994923,-360,360,0,0,0,0,7.19018694364508e-13,0
89,PERFORM2019:AC:897:902:2,9002,74,1,1216,768.779957523062,767.61116373181,0,0,2.4633007994923,-360,360,0,0,0,0,8.60314393529808e-13,0
90,PERFORM2019:AC:774:1519:1,76,774,1,1216,10.9461893576501,8.96041824066045,0,0,0.0142405905848904,-360,360,0,0,0,0,1.80731214395321e-15,0
91,PERFORM2019:AC:774:900:1,774,77,1,1725,8.96041824065771,17.4322645138747,0,0,0.0258018552905845,-360,360,0,0,0,0,2.22044604925031e-16,0
92,PERFORM2019:AC:900:1519:1,76,77,1,1725,10.9640619782106,17.4264031844516,0,0,0.0400424458754749,-360,360,0,0,0,0,8.88178419700125e-16,0
93,NY2025:CEEC:351,43,9101,1,2000,269.806072027671,264.49005101378,0,0,3.90553219345873,-360,360,0,0,0,0,5.69058346387456e-14,0
94,NY2025:CEEC:352,43,9101,1,2000,269.806072027671,264.49005101378,0,0,3.90553219345873,-360,360,0,0,0,0,5.69058346387456e-14,0
95,NY2025:CEEC:361,9101,37,1,2000,415.432151196748,414.555215418902,0,0,2.36242321846766,-360,360,0,0,0,0,1.14571573537582e-13,0
96,NY2025:CEEC:362,9101,37,1,2000,415.432151196748,414.555215418902,0,0,2.36242321846766,-360,360,0,0,0,0,1.14571573537582e-13,0
97,NY2025:CEEC:14,43,9102,1,2000,231.741156653991,225.658309392833,0,0,3.57522045068583,-360,360,0,0,0,0,2.8477166477148e-14,0
98,NY2025:CEEC:371,9101,9102,1,2000,302.016743721033,302.200861448467,0,0,-0.330311742772897,-360,360,0,0,0,0,4.55094163333639e-13,0
99,NY2025:CEEC:LEGACY230:1,40,9103,1,1328.76341358641,60.3570039421487,51.3413753689208,0,0,-0.663482040348033,-360,360,0,0,0,0,1.42965718714869e-12,0
100,NY2025:CEEC:LEGACY230:2,9103,44,1,1328.76341358641,125.687203818212,127.790352150372,0,0,-1.86965934582425,-360,360,0,0,0,0,1.44937220637708e-12,0
101,NY2025:CEEC:GORDON_XFMR,9102,9103,1,1200,79.4899520939113,79.1491049111034,0,0,-1.06535911978895,-360,360,0,0,0,0,1.45201281321133e-12,0
102,NY2025:NYES:1,9001,9104,1,1800,218.155813418536,217.179576286468,0,0,1.07399708618549,-360,360,0,0,0,0,2.84529173193728e-14,0
103,NY2025:NYES:2,9104,73,1,1800,217.179576286469,218.679070795823,0,0,1.55553209935177,-360,360,0,0,0,0,3.17764371615651e-14,0
104,NY2025:SMART_PATH:1,1220,48,0,575,0,0,0,0,-0.0333039505074613,-360,360,0,0,0,0,0,0
105,NY2025:SMART_PATH:2,1220,48,0,575,0,0,0,0,-0.0333039505074613,-360,360,0,0,0,0,0,0
106,NY2025:SMART_PATH:3,1220,44,0,453,0,0,0,0,0.399333357672218,-360,360,0,0,0,0,0,0
107,NY2025:SMART_PATH:4,1220,44,0,453,0,0,0,0,0.399333357672218,-360,360,0,0,0,0,0,0
108,NY2025:NYC:DELIVERY:95:1,78,1130,1,908.848753535103,230.366992784064,230.030118844216,0,0,1.00265271364341,-360,360,0,0,0,0,2.92964275105423e-14,0
109,NY2025:NYC:DELIVERY:95:2,1130,79,1,908.848753535103,245.004881790197,244.61356987717,0,0,1.06938133553094,-360,360,0,0,0,0,2.89169943032514e-14,0
110,NY2025:NYC:DELIVERY:240:1,78,557,1,1390.53859290871,352.807075549333,352.293757771666,0,0,1.00529717083946,-360,360,0,0,0,0,5.75331240096291e-14,0
111,NY2025:NYC:DELIVERY:240:2,557,79,1,1390.53859290871,373.354551963005,372.75548913029,0,0,1.06673687833489,-360,360,0,0,0,0,5.68711676634668e-14,0
112,NY2025:NYC:DELIVERY:97:1,78,1129,1,503.818330764024,20.8007191955195,20.784908360739,0,0,0.157921326328122,-360,360,0,0,0,0,8.88178419700125e-16,0
113,NY2025:NYC:DELIVERY:97:2,1129,81,1,503.818330764024,14.7964023654286,14.781378698295,0,0,0.101177081054907,-360,360,0,0,0,0,1.77635683940025e-15,0
114,NY2025:NYC:DELIVERY:239:1,78,1129,1,1158.78216075726,47.7636067645717,47.727301169175,0,0,0.157921326328122,-360,360,0,0,0,0,7.105427357601e-15,0
115,NY2025:NYC:DELIVERY:239:2,1129,81,1,1158.78216075726,33.9762071431106,33.941709079732,0,0,0.101177081054907,-360,360,0,0,0,0,5.02429586778808e-15,0
116,NY2025:NYC:RAINEY_XFMR,1130,1529,1,1500,15.7154513702208,15.746292047459,0,0,-0.26947652348861,-360,360,0,0,0,0,8.88178419700125e-16,0
117,NY2025:NYC:ASTORIA_XFMR,557,1493,1,1500,22.4359698589161,22.4853077683858,0,0,-0.29487069008827,-360,360,0,0,0,0,3.97205464519564e-15,0
118,NY2025:NYC:CORONA_BASELINE,1493,601,1,2248,22.4853077683911,21.2150708066369,0,0,-0.0116536821505484,-360,360,0,0,0,0,5.70118304739081e-12,0
119,NY2025:RCC_QUEENS:CABLE,1529,601,1,300,15.7462920474635,14.8461115338354,0,0,-0.0344033915541573,-360,360,0,0,0,0,1.4236317766237e-12,0
120,NY2025:RCC_BROOKLYN:PAR,1129,9112,1,300,24.6117847472062,24.654958739195,0,0,0.410249067078574,-360,360,0,0,0,0,1.77635683940025e-15,0
121,NY2025:RCC_BROOKLYN:CABLE,9112,9111,1,300,24.6549587391843,24.491433685616,0,0,0.0103444776006434,-360,360,0,0,0,0,3.66205343881779e-15,0
122,NY2025:RCC_STATEN:PAR,81,9113,1,300,15.2302794425382,15.2692553016402,0,0,0.217003498522754,-360,360,0,0,0,0,1.77635683940025e-15,0
123,NY2025:RCC_STATEN:CABLE,9113,9114,1,300,15.2692553016404,12.7810333843934,0,0,0.0511960312156639,-360,360,0,0,0,0,1.77635683940025e-15,0
124,NY2025:NYC:GREENWOOD_CORONA,9111,601,1,600,35.9724639046954,35.5263364406358,0,0,0.1202579275933,-360,360,0,0,0,0,2.85102173766618e-12,0
125,NY2025:NYC:FOX_GREENWOOD,9114,9111,1,600,12.7810333843919,12.1041184064324,0,0,0.0512169338858932,-360,360,0,0,0,0,1.83102671940889e-15,0
126,NY2025_SPC:MH2,48,9120,1,433.826765771777,54.940593625665,54.2366472616377,0,0,0.0299158666558372,-360,360,0,0,0,0,1.77635683940025e-15,0
127,NY2025_SPC:MH3,48,9120,1,433.826765771777,54.940593625665,54.2366472616377,0,0,0.0299158666558372,-360,360,0,0,0,0,1.77635683940025e-15,0
128,NY2025_SPC:HA2,9121,1220,1,1300.88273978672,82.9356249774262,16.1436261683376,0,0,-0.205308856680249,-360,360,0,0,0,0,3.5527136788005e-15,0
129,NY2025_SPC:HW2,9121,9123,1,1863.78193173853,46.0251253425279,38.2764037748751,0,0,0.356536196230452,-360,360,0,0,0,0,3.5527136788005e-15,0
130,NY2025_SPC:LINE11,9122,43,1,1863.78193173853,16.0980804443679,47.2528384954022,0,0,-0.196647780084361,-360,360,0,0,0,0,1.46928228817358e-12,0
131,NY2025_SPC:LINE13,1220,9122,1,1863.78193173853,16.1436261683334,16.0980804443696,0,0,-0.0442208473160537,-360,360,0,0,0,0,5.83702403993806e-12,0
132,NY2025_SPC:AT2,9120,9121,1,450,54.2366472616466,55.0070470193003,0,0,0.208696940531873,-360,360,0,0,0,0,1.77635683940025e-15,0
133,NY2025_SPC:AT3,9120,9121,1,450,54.2366472616466,55.0070470193003,0,0,0.208696940531873,-360,360,0,0,0,0,1.77635683940025e-15,0
134,NY2025_SPC:TR2,9123,9124,1,1350,38.2764037748738,38.2535314598104,0,0,0.188868396085287,-360,360,0,0,0,0,7.1607233460989e-15,0
135,NY2025_SPC:PLATTS_REGIONAL_EQ,49,9124,1,2500,37.7924608399539,38.2535314598112,0,0,-3.27995629538466,-360,360,0,0,0,0,7.105427357601e-15,0
